[PARAMETERS]
0.002	SIMPLE_MOC	10.000
[PIPES]
3	4	2	0.4	100	1000	0.008	0.002	0	0
1	1	2	0.4	200	1000	0.008	0.002	0	0
2	3	2	0.4	200	1000	0.008	0.002	0	0
[RESERVOIRS]
1	100	10	0
4	100	0	0
3	100	0	0
[JUNCTIONS]
2	0
[END]
