[PARAMETERS]
0.002	SIMPLE_MOC	5.000	0.05
[PIPES]
1	1	2	0.4	200	1000	0.008	0.5	0	0
2	3	2	0.4	200	1000	0.008	0.5	0	0
[RESERVOIRS]
1	100	10	0
3	100	0	0
[CURVES]
1	Cd	0	100	0	0.7
2	time	0	10	100	100
[CONTROLLERS]
1	setT	2
[VALVES]
2	0	0.4	1	1
[END]
