[PARAMETERS]
0.002	SIMPLE_MOC	5.000	0.05
[PIPES]
1	1	2	0.4	100	5000	0.008	0.5	0	0
2	2	3	0.4	100	5000	0.008	0.5	0	0
3	2	4	0.4	100	5000	0.008	0.5	0	0
[RESERVOIRS]
1	100	10	0
3	100	0	0
4	100	0	0
[JUNCTIONS]
2	0
[END]
